Nordic_test_system.m
mpc.version = '2';
mpc.baseMVA = 100.0;
mpc.baseKG=100;
mpc.frequency1=50;
mpc.rocof=0.5;
mpc.deltaf=1;
mpc.wind=98160;%=40760+50873+6527
mpc.solar=36731;%=9849+26882

%% bus data
%	bus_i	type		Pd		Qd		  Gs	 Bs	   area		Vm	   Va		   baseKV	zone	  Vmax			 Vmin
mpc.bus = [
	1	 	1	 		0.0	 	0.0	 	  0.0	 0.0	 1	    1.0	    0	 		380.0	  1	      1.10000	    0.90000;
	2	 	2	 		0.0	    0.0	      0.0	 0.0	 1	    1.0	    0	 		380.0	  1	      1.10000	    0.90000;
	3	 	3	 		220.0	0.0	 	  0.0	 0.0	 1	    1.0	    0	 		380.0	  1	      1.10000	    0.90000;
	4	 	1	 		0.0	 	0.0	 	  0.0	 0.0	 2	    1.0	    0	 		380.0	  2	      1.10000	    0.90000;
	5	 	2	 	  	0.0	    0.0	      0.0	 0.0	 2	    1.0526	0	 		380.0	  2	      1.10000	    0.90000;
	6	 	3	 		190.0	0.0	      0.0	 0.0	 2	    1.0	    0	 		380.0	  2	      1.10000	    0.90000;
    ];
%% bus mapping: n1=1, n2=2, n3=3, n4=4, n5=5, n6=6

%% branch data r, x, b assigned randomly using random data for matpower case 14
%  1-fbus  2-tbus   3-r       4-x       5-b       6-rateA  7-rateB  8-rateC  9-ratio  10-angle  11-status  12-angmin  13-angmax
mpc.branch = [
     1       2     0.0235    0.0712    0.0356     100      100      100       0         0         1         -60         60;  % n1–n2
     1       3     0.0479    0.1925    0.0423     100      100      100       0         0         1         -60         60;  % n1–n3
     2       3     0.0526    0.1583    0.0317     100      100      100       0         0         1         -60         60;  % n2–n3
     4       5     0.0142    0.0453    0.0110     100      100      100       0         0         1         -60         60;  % n4–n5
     4       6     0.0668    0.1339    0.0125     100      100      100       0         0         1         -60         60;  % n4–n6
     5       6     0.1213    0.2661    0.0498     100      100      100       0         0         1         -60         60;  % n5–n6
];


mpc.gen = [
% bus   Pg Qg Qmax Qmin Vg mBase status Pmax     Pmin    Pc1 Pc2 Qc1min Qc1max Qc2min Qc2max ramp_agc ramp_10 ramp_30 ramp_q apf alpha
2457    0  0  0    0    0  100   1      2042.84  204.284 0   0   0      0      0      0      0        0       0       0      0   0
2458    0  0  0    0    0  100   1       894.69   89.469 0   0   0      0      0      0      0        0       0       0      0   0
2460    0  0  0    0    0  100   1       299.08   29.908 0   0   0      0      0      0      0        0       0       0      0   0
4914    0  0  0    0    0  100   1      1730.37  173.037 0   0   0      0      0      0      0        0       0       0      0   0
4915    0  0  0    0    0  100   1       150.65   15.065 0   0   0      0      0      0      0        0       0       0      0   0
4916    0  0  0    0    0  100   1       383.08   38.308 0   0   0      0      0      0      0        0       0       0      0   0
4918    0  0  0    0    0  100   1       232.33   23.233 0   0   0      0      0      0      0        0       0       0      0   0
4919    0  0  0    0    0  100   1      1031.58  103.158 0   0   0      0      0      0      0        0       0       0      0   0
4920    0  0  0    0    0  100   1       517.79   51.779 0   0   0      0      0      0      0        0       0       0      0   0
4921    0  0  0    0    0  100   1       179.49   17.949 0   0   0      0      0      0      0        0       0       0      0   0
4922    0  0  0    0    0  100   1       828.33   82.833 0   0   0      0      0      0      0        0       0       0      0   0
4923    0  0  0    0    0  100   1      1199.29  119.929 0   0   0      0      0      0      0        0       0       0      0   0
4924    0  0  0    0    0  100   1      1876.63  187.663 0   0   0      0      0      0      0        0       0       0      0   0
4925    0  0  0    0    0  100   1        38.98    3.898 0   0   0      0      0      0      0        0       0       0      0   0
4926    0  0  0    0    0  100   1       100.12   10.012 0   0   0      0      0      0      0        0       0       0      0   0
4927    0  0  0    0    0  100   1      2654.59  265.459 0   0   0      0      0      0      0        0       0       0      0   0
4928    0  0  0    0    0  100   1       425.64   42.564 0   0   0      0      0      0      0        0       0       0      0   0
4929    0  0  0    0    0  100   1       476.73   47.673 0   0   0      0      0      0      0        0       0       0      0   0
4930    0  0  0    0    0  100   1       150.08   15.008 0   0   0      0      0      0      0        0       0       0      0   0
4931    0  0  0    0    0  100   1      1004.57  100.457 0   0   0      0      0      0      0        0       0       0      0   0
4932    0  0  0    0    0  100   1      3355.43  335.543 0   0   0      0      0      0      0        0       0       0      0   0
4933    0  0  0    0    0  100   1       858.02   85.802 0   0   0      0      0      0      0        0       0       0      0   0
4934    0  0  0    0    0  100   1      2358.23  235.823 0   0   0      0      0      0      0        0       0       0      0   0
4935    0  0  0    0    0  100   1      2076.75  207.675 0   0   0      0      0      0      0        0       0       0      0   0
4936    0  0  0    0    0  100   1       774.52   77.452 0   0   0      0      0      0      0        0       0       0      0   0
4937    0  0  0    0    0  100   1      4476.97  447.697 0   0   0      0      0      0      0        0       0       0      0   0
4938    0  0  0    0    0  100   1       690.11   69.011 0   0   0      0      0      0      0        0       0       0      0   0
4939    0  0  0    0    0  100   1       750.68   75.068 0   0   0      0      0      0      0        0       0       0      0   0
4940    0  0  0    0    0  100   1      1270.15  127.015 0   0   0      0      0      0      0        0       0       0      0   0
4941    0  0  0    0    0  100   1      2400.57  240.057 0   0   0      0      0      0      0        0       0       0      0   0
5476    0  0  0    0    0  100   1      1025.76  102.576 0   0   0      0      0      0      0        0       0       0      0   0
5477    0  0  0    0    0  100   1      4418.24  441.824 0   0   0      0      0      0      0        0       0       0      0   0
5478    0  0  0    0    0  100   1       655.60   65.560 0   0   0      0      0      0      0        0       0       0      0   0
5479    0  0  0    0    0  100   1       782.18   78.218 0   0   0      0      0      0      0        0       0       0      0   0
5480    0  0  0    0    0  100   1      3417.36  341.736 0   0   0      0      0      0      0        0       0       0      0   0
5481    0  0  0    0    0  100   1      3219.97  321.997 0   0   0      0      0      0      0        0       0       0      0   0
5483    0  0  0    0    0  100   1      1728.26  172.826 0   0   0      0      0      0      0        0       0       0      0   0
5484    0  0  0    0    0  100   1       121.84   12.184 0   0   0      0      0      0      0        0       0       0      0   0
5485    0  0  0    0    0  100   1       375.38   37.538 0   0   0      0      0      0      0        0       0       0      0   0
5486    0  0  0    0    0  100   1       275.42   27.542 0   0   0      0      0      0      0        0       0       0      0   0
5487    0  0  0    0    0  100   1        52.08    5.208 0   0   0      0      0      0      0        0       0       0      0   0
5489    0  0  0    0    0  100   1        30.01    3.001 0   0   0      0      0      0      0        0       0       0      0   0
5490    0  0  0    0    0  100   1        21.13    2.113 0   0   0      0      0      0      0        0       0       0      0   0
5493    0  0  0    0    0  100   1       323.87   32.387 0   0   0      0      0      0      0        0       0       0      0   0
];

mpc.pump = [
% bus   Pg Qg Qmax Qmin Vg mBase status Pmax   Pmin Pc1 Pc2 Qc1min Qc1max Qc2min Qc2max ramp_agc ramp_10 ramp_30 ramp_q apf alpha
4922    0  0  0    0    0  100   1      35.89  0    0   0   0      0      0      0      0        0       0       0      0   0
4924    0  0  0    0    0  100   1      861.44 0    0   0   0      0      0      0      0        0       0       0      0   0
4932    0  0  0    0    0  100   1      96.00  0    0   0   0      0      0      0      0        0       0       0      0   0
4937    0  0  0    0    0  100   1      322.74 0    0   0   0      0      0      0      0        0       0       0      0   0
4938    0  0  0    0    0  100   1      53.26  0    0   0   0      0      0      0      0        0       0       0      0   0
];

mpc.nuclear = [
% bus   Pg Qg Qmax Qmin Vg mBase status Pmax   Pmin  Pc1 Pc2 Qc1min Qc1max Qc2min Qc2max ramp_agc ramp_10 ramp_30 ramp_q apf alpha
2460    0  0  0    0    0  100   1      501    50.1  0   0   0      0      0      0      0        0       0       0      0   0;
2460    0  0  0    0    0  100   1      501    50.1  0   0   0      0      0      0      0        0       0       0      0   0;
2460    0  0  0    0    0  100   1      888    88.8  0   0   0      0      0      0      0        0       0       0      0   0;
2460    0  0  0    0    0  100   1      888    88.8  0   0   0      0      0      0      0        0       0       0      0   0;
2460    0  0  0    0    0  100   1      1615   161.5 0   0   0      0      0      0      0        0       0       0      0   0;
5484    0  0  0    0    0  100   1      1119   111.9 0   0   0      0      0      0      0        0       0       0      0   0;
5484    0  0  0    0    0  100   1      1166   116.6 0   0   0      0      0      0      0        0       0       0      0   0;
5488    0  0  0    0    0  100   1      1064   106.4 0   0   0      0      0      0      0        0        0      0      0   0;
5488    0  0  0    0    0  100   1      1105   110.5 0   0   0      0      0      0      0        0        0      0      0   0;
5489    0  0  0    0    0  100   1      1398   139.8 0   0   0      0      0      0      0        0        0      0      0   0;

% --- 11 new Nuclear units  (1127 MW each) ---
2460    0  0  0    0    0  100   1      1127   112.7 0   0   0      0      0      0      0        0       0       0      0   0;
2460    0  0  0    0    0  100   1      1127   112.7 0   0   0      0      0      0      0        0       0       0      0   0;
2460    0  0  0    0    0  100   1      1127   112.7 0   0   0      0      0      0      0        0       0       0      0   0;
2460    0  0  0    0    0  100   1      1127   112.7 0   0   0      0      0      0      0        0       0       0      0   0;
2460    0  0  0    0    0  100   1      1127   112.7 0   0   0      0      0      0      0        0       0       0      0   0;

5484    0  0  0    0    0  100   1      1127   112.7 0   0   0      0      0      0      0        0       0       0      0   0;
5484    0  0  0    0    0  100   1      1127   112.7 0   0   0      0      0      0      0        0       0       0      0   0;
5488    0  0  0    0    0  100   1      1127   112.7 0   0   0      0      0      0      0        0       0       0      0   0;
5488    0  0  0    0    0  100   1      1127   112.7 0   0   0      0      0      0      0        0       0       0      0   0;
5489    0  0  0    0    0  100   1      1127   112.7 0   0   0      0      0      0      0        0       0       0      0   0;
5489    0  0  0    0    0  100   1      1127   112.7 0   0   0      0      0      0      0        0       0       0      0   0;
];

mpc.gas = [
% bus   Pg Qg Qmax Qmin Vg mBase status Pmax  Pmin   Pc1 Pc2 Qc1min Qc1max Qc2min Qc2max ramp_agc ramp_10 ramp_30 ramp_q apf alpha
1517    0  0  0    0    0  100   1      81    8.1    0   0   0      0      0      0      0        0       0       0      0   0;
1523    0  0  0    0    0  100   1      54    5.4    0   0   0      0      0      0      0        0       0       0      0   0;
1524    0  0  0    0    0  100   1      106   10.6   0   0   0      0      0      0      0        0       0       0      0   0;
1535    0  0  0    0    0  100   1      66    6.6    0   0   0      0      0      0      0        0       0       0      0   0;
1559    0  0  0    0    0  100   1      53    5.3    0   0   0      0      0      0      0        0       0       0      0   0;
2460    0  0  0    0    0  100   1      422   42.2   0   0   0      0      0      0      0        0       0       0      0   0;
2460    0  0  0    0    0  100   1      464   46.4   0   0   0      0      0      0      0        0       0       0      0   0;
2460    0  0  0    0    0  100   1      1157  115.7  0   0   0      0      0      0      0        0       0       0      0   0;
2460    0  0  0    0    0  100   1      1569  156.9  0   0   0      0      0      0      0        0       0       0      0   0;
4931    0  0  0    0    0  100   1      9     0.9    0   0   0      0      0      0      0        0       0       0      0   0;
4931    0  0  0    0    0  100   1      11    1.1    0   0   0      0      0      0      0        0       0       0      0   0;
4934    0  0  0    0    0  100   1      195   19.5   0   0   0      0      0      0      0        0       0       0      0   0;
5480    0  0  0    0    0  100   1      54    5.4    0   0   0      0      0      0      0        0       0       0      0   0;
5488    0  0  0    0    0  100   1      57    5.7    0   0   0      0      0      0      0        0       0       0      0   0;

];


mpc.biomass = [
% bus   Pg Qg Qmax Qmin Vg mBase status Pmax Pmin  Pc1 Pc2 Qc1min Qc1max Qc2min Qc2max ramp_agc ramp_10 ramp_30 ramp_q apf alpha
1544    0  0  0    0    0  100   1      31   3.1   0   0   0      0      0      0      0        0       0       0      0   0;
1547    0  0  0    0    0  100   1      143  14.3  0   0   0      0      0      0      0        0       0       0      0   0;
1547    0  0  0    0    0  100   1      68   6.8   0   0   0      0      0      0      0        0       0       0      0   0;
1555    0  0  0    0    0  100   1      133  13.3  0   0   0      0      0      0      0        0       0       0      0   0;
1569    0  0  0    0    0  100   1      238  23.8  0   0   0      0      0      0      0        0       0       0      0   0;
1571    0  0  0    0    0  100   1      523  52.3  0   0   0      0      0      0      0        0       0       0      0   0;
1571    0  0  0    0    0  100   1      55   5.5   0   0   0      0      0      0      0        0       0       0      0   0;
1571    0  0  0    0    0  100   1      55   5.5   0   0   0      0      0      0      0        0       0       0      0   0;
2457    0  0  0    0    0  100   1      351  35.1  0   0   0      0      0      0      0        0       0       0      0   0;
2457    0  0  0    0    0  100   1      220  22.0  0   0   0      0      0      0      0        0       0       0      0   0;
2457    0  0  0    0    0  100   1      138  13.8  0   0   0      0      0      0      0        0       0       0      0   0;
2457    0  0  0    0    0  100   1      133  13.3  0   0   0      0      0      0      0        0       0       0      0   0;
2457    0  0  0    0    0  100   1      131  13.1  0   0   0      0      0      0      0        0       0       0      0   0;
2457    0  0  0    0    0  100   1      115  11.5  0   0   0      0      0      0      0        0       0       0      0   0;
2457    0  0  0    0    0  100   1      110  11.0  0   0   0      0      0      0      0        0       0       0      0   0;
2457    0  0  0    0    0  100   1      110  11.0  0   0   0      0      0      0      0        0       0       0      0   0;
2457    0  0  0    0    0  100   1      98   9.8   0   0   0      0      0      0      0        0       0       0      0   0;
2460    0  0  0    0    0  100   1      518  51.8  0   0   0      0      0      0      0        0       0       0      0   0;
2460    0  0  0    0    0  100   1      299  29.9  0   0   0      0      0      0      0        0       0       0      0   0;
2460    0  0  0    0    0  100   1      298  29.8  0   0   0      0      0      0      0        0       0       0      0   0;
2460    0  0  0    0    0  100   1      174  17.4  0   0   0      0      0      0      0        0       0       0      0   0;
2460    0  0  0    0    0  100   1      170  17.0  0   0   0      0      0      0      0        0       0       0      0   0;
2460    0  0  0    0    0  100   1      165  16.5  0   0   0      0      0      0      0        0       0       0      0   0;
2460    0  0  0    0    0  100   1      153  15.3  0   0   0      0      0      0      0        0       0       0      0   0;
2460    0  0  0    0    0  100   1      147  14.7  0   0   0      0      0      0      0        0       0       0      0   0;
2460    0  0  0    0    0  100   1      142  14.2  0   0   0      0      0      0      0        0       0       0      0   0;
2460    0  0  0    0    0  100   1      117  11.7  0   0   0      0      0      0      0        0       0       0      0   0;
2460    0  0  0    0    0  100   1      115  11.5  0   0   0      0      0      0      0        0       0       0      0   0;
2460    0  0  0    0    0  100   1      115  11.5  0   0   0      0      0      0      0        0       0       0      0   0;
2460    0  0  0    0    0  100   1      92   9.2   0   0   0      0      0      0      0        0       0       0      0   0;
4917    0  0  0    0    0  100   1      50   5.0   0   0   0      0      0      0      0        0       0       0      0   0;
5476    0  0  0    0    0  100   1      300  30.0  0   0   0      0      0      0      0        0       0       0      0   0;
5479    0  0  0    0    0  100   1      434  43.4  0   0   0      0      0      0      0        0       0       0      0   0;
5480    0  0  0    0    0  100   1      334  33.4  0   0   0      0      0      0      0        0       0       0      0   0;
5488    0  0  0    0    0  100   1      499  49.9  0   0   0      0      0      0      0        0       0       0      0   0;
5488    0  0  0    0    0  100   1      499  49.9  0   0   0      0      0      0      0        0       0       0      0   0;
5484    0  0  0    0    0  100   1      845  84.5  0   0   0      0      0      0      0        0       0       0      0   0;
5484    0  0  0    0    0  100   1      470  47.0  0   0   0      0      0      0      0        0       0       0      0   0;
5484    0  0  0    0    0  100   1      230  23.0  0   0   0      0      0      0      0        0       0       0      0   0;
5484    0  0  0    0    0  100   1      192  19.2  0   0   0      0      0      0      0        0       0       0      0   0;
5497    0  0  0    0    0  100   1      368  36.8  0   0   0      0      0      0      0        0       0       0      0   0;
5497    0  0  0    0    0  100   1      246  24.6  0   0   0      0      0      0      0        0       0       0      0   0;
5497    0  0  0    0    0  100   1      137  13.7  0   0   0      0      0      0      0        0       0       0      0   0;
5497    0  0  0    0    0  100   1      71   7.1   0   0   0      0      0      0      0        0       0       0      0   0;
];


mpc.oil = [
% bus   Pg Qg Qmax Qmin Vg mBase status Pmax Pmin Pc1 Pc2 Qc1min Qc1max Qc2min Qc2max ramp_agc ramp_10 ramp_30 ramp_q apf alpha
1603    0  0  0    0    0  100   1      593  59.3 0   0   0      0      0      0      0        0       0       0      0   0;
];



% 2 startup shutdown n c1 c0
% costo(P) = c1*P + c0
mpc.gencost = [
	2	0	0	2	6.0260	0;
	2	0	0	2	6.8720	0;
	2	0	0	2	6.2030	0;
	2	0	0	2	6.7300	0;
	2	0	0	2	7.1200	0;
	2	0	0	2	7.1660	0;
	2	0	0	2	8.6590	0;
	2	0	0	2	8.6140	0;
	2	0	0	2	8.3460	0;
	2	0	0	2	7.6570	0;
	2	0	0	2	5.5070	0;
	2	0	0	2	6.4900	0;
	2	0	0	2	7.6430	0;
	2	0	0	2	8.9690	0;
	2	0	0	2	8.4340	0;
	2	0	0	2	6.0780	0;
	2	0	0	2	7.3080	0;
	2	0	0	2	8.9080	0;
	2	0	0	2	7.4870	0;
	2	0	0	2	7.1910	0;
	2	0	0	2	6.3840	0;
	2	0	0	2	6.7410	0;
	2	0	0	2	6.6050	0;
	2	0	0	2	6.9430	0;
	2	0	0	2	6.7260	0;
	2	0	0	2	7.6040	0;
	2	0	0	2	6.8650	0;
	2	0	0	2	7.2340	0;
	2	0	0	2	5.7660	0;
	2	0	0	2	7.7690	0;
	2	0	0	2	7.8358	0;
	2	0	0	2	7.9754	0;
	2	0	0	2	5.5052	0;
	2	0	0	2	6.0671	0;
	2	0	0	2	5.8794	0;
	2	0	0	2	7.911027	0;
	2	0	0	2	5.34202	0;
	2	0	0	2	5.38447	0;
	2	0	0	2	7.784357	0;
	2	0	0	2	7.260093307	0;
	2	0	0	2	7.399108	0;
	2	0	0	2	6.196651	0;
	2	0	0	2	7.362056278	0;
	2	0	0	2	6.475191519	0;
];



mpc.gencost_pump = [
% 2 startup shutdown n c1 c0
	2	0	0	2	8.6320	0;
	2	0	0	2	8.4820	0;
	2	0	0	2	2.9150	0;
	2	0	0	2	2.6760	0;
	2	0	0	2	3.4280	0;
];

mpc.gencost_nuclear = [
% 2 startup shutdown n c1 c0
	2	0	0	2	12.6940	0;
	2	0	0	2	13.0710	0;
	2	0	0	2	10.9540	0;
	2	0	0	2	10.9490	0;
	2	0	0	2	10.3650	0;
	2	0	0	2	10.2110	0;
	2	0	0	2	10.4180	0;
	2	0	0	2	10.9580	0;
	2	0	0	2	10.7290	0;
	2	0	0	2	10.6490	0;

% --- New 11 units ---
	2	0	0	2	10.5320	0;
	2	0	0	2	10.8760	0;
	2	0	0	2	11.0240	0;
	2	0	0	2	10.4470	0;
	2	0	0	2	10.7930	0;
	2	0	0	2	11.1820	0;
	2	0	0	2	10.3680	0;
	2	0	0	2	10.6150	0;
	2	0	0	2	10.9020	0;
	2	0	0	2	11.0560	0;
	2	0	0	2	10.7210	0;
];

mpc.gencost_gas = [
% 2 startup shutdown n c1 c0
	2	0	0	2	67.0500	0;
	2	0	0	2	68.3080	0;
	2	0	0	2	70.8810	0;
	2	0	0	2	67.1170	0;
	2	0	0	2	68.4150	0;
	2	0	0	2	62.0260	0;
	2	0	0	2	61.2560	0;
	2	0	0	2	57.1070	0;
	2	0	0	2	56.1760	0;
	2	0	0	2	60.8490	0;
	2	0	0	2	58.6800	0;
	2	0	0	2	58.8910	0;
	2	0	0	2	58.2667	0;
	2	0	0	2	58.3030	0;
];
mpc.gencost_biomass = [
% 2 startup shutdown n c1 c0
	2	0	0	2	31.9780	0;
	2	0	0	2	36.6670	0;
	2	0	0	2	41.1604	0;
	2	0	0	2	37.0426	0;
	2	0	0	2	37.3583	0;
	2	0	0	2	36.0357	0;
	2	0	0	2	38.5052	0;
	2	0	0	2	37.6739	0;
	2	0	0	2	29.0540	0;
	2	0	0	2	42.0553	0;
	2	0	0	2	39.1035	0;
	2	0	0	2	43.5000	0;
	2	0	0	2	40.3591	0;
	2	0	0	2	35.6900	0;
	2	0	0	2	40.8867	0;
	2	0	0	2	38.4133	0;
	2	0	0	2	40.0835	0;
	2	0	0	2	28.5570	0;
	2	0	0	2	36.3852	0;
	2	0	0	2	38.6909	0;
	2	0	0	2	40.7448	0;
	2	0	0	2	39.3822	0;
	2	0	0	2	36.0076	0;
	2	0	0	2	43.0311	0;
	2	0	0	2	42.8487	0;
	2	0	0	2	31.0480	0;
	2	0	0	2	37.9357	0;
	2	0	0	2	39.4662	0;
	2	0	0	2	39.8078	0;
	2	0	0	2	42.3630	0;
	2	0	0	2	39.6604	0;
	2	0	0	2	36.4760	0;
	2	0	0	2	36.3232	0;
	2	0	0	2	44.4812	0;
	2	0	0	2	38.7810	0;
	2	0	0	2	40.0814	0;
	2	0	0	2	38.2233	0;
	2	0	0	2	43.5500	0;
	2	0	0	2	41.8617	0;
	2	0	0	2	36.3413	0;
	2	0	0	2	29.4670	0;
	2	0	0	2	38.0964	0;
	2	0	0	2	40.5490	0;
	2	0	0	2	41.8995	0;
];



mpc.gencost_oil = [
% 2 startup shutdown n c1 c0
	2	0	0	2	118.1340	0;
];



%% Extra operational data for reservoir generators
% DT[s] IC[s] upramp_MWph downramp_MWph MUT[h] MDT[h] reservecost_g MaxFRdeliverable[MW] Storage
mpc.genextra = [
 15     4     2042.84       2042.84        0     0      15.287       204.284     3490352;
 15     4      894.69        894.69        0     0      15.287        89.469     1528653;
 15     4      299.08        299.08        0     0      15.287        29.908      510995;
 15     4     1730.37       1730.37        0     0      15.287       173.037     3706323;
 15     4      150.65        150.65        0     0      15.287        15.065      322671;
 15     4      383.08        383.08        0     0      15.287        38.308      820529;
 15     4      232.33        232.33        0     0      15.287        23.233      497632;
 15     4     1031.58       1031.58        0     0      15.287       103.158     2209561;
 15     4      517.79        517.79        0     0      15.287        51.779     1980268;
 15     4      179.49        179.49        0     0      15.287        17.949      686433;
 15     4      828.33        828.33        0     0      15.287        82.833     3167895;
 15     4     1199.29       1199.29        0     0      15.287       119.929     4586614;
 15     4     1876.63       1876.63        0     0      15.287       187.663     7177080;
 15     4       38.98         38.98        0     0      15.287         3.898      149066;
 15     4      100.12        100.12        0     0      15.287        10.012      382913;
 15     4     2654.59       2654.59        0     0      15.287       265.459    10152364;
 15     4      425.64        425.64        0     0      15.287        42.564     1627857;
 15     4      476.73        476.73        0     0      15.287        47.673     1823222;
 15     4      150.08        150.08        0     0      15.287        15.008      573985;
 15     4     1004.57       1004.57        0     0      15.287       100.457     4653316;
 15     4     3355.43       3355.43        0     0      15.287       335.543     6524384;
 15     4      858.02        858.02        0     0      15.287        85.802     3743390;
 15     4     2358.23       2358.23        0     0      15.287       235.823    10288543;
 15     4     2076.75       2076.75        0     0      15.287       207.675     9060467;
 15     4      774.52        774.52        0     0      15.287        77.452     1342375;
 15     4     4476.97       4476.97        0     0      15.287       447.697     7759368;
 15     4      690.11        690.11        0     0      15.287        69.011     1196078;
 15     4      750.68        750.68        0     0      15.287        75.068     1301067;
 15     4     1270.15       1270.15        0     0      15.287       127.015     2201386;
 15     4     2400.57       2400.57        0     0      15.287       240.057     4160615;
 15     4     1025.76       1025.76        0     0      15.287       102.576     2718217;
 15     4     4418.24       4418.24        0     0      15.287       441.824    11708090;
 15     4      655.60        655.60        0     0      15.287        65.560     1201458;
 15     4      782.18        782.18        0     0      15.287        78.218     1433439;
 15     4     3417.36       3417.36        0     0      15.287       341.736     6262722;
 15     4     3219.97       3219.97        0     0      15.287       321.997     5900981;
 15     4     1728.26       1728.26        0     0      15.287       172.826     1763109;
 15     4      121.84        121.84        0     0      15.287        12.184      124296;
 15     4      375.38        375.38        0     0      15.287        37.538      382950;
 15     4      275.42        275.42        0     0      15.287        27.542      280978;
 15     4       52.08         52.08        0     0      15.287         5.208       53132;
 15     4       30.01         30.01        0     0      15.287         3.001       30612;
 15     4       21.13         21.13        0     0      15.287         2.113       64369;
 15     4      323.87        323.87        0     0      15.287        32.387      146981;
];


%% Extra operational data for pumped storage units
% DT[s] IC[s] upramp_MWph downramp_MWph MUT[h] MDT[h] reservecost_g MaxFRdeliverable[MW] Ppump Storage
mpc.gen_extra_pump = [
 15     4       35.89         35.89         0     0      15.287         3.589     -21.39   126069;
 15     4      861.44        861.44         0     0      15.287        86.144     -515.61  4076931;
 15     4       96.00         96.00         0     0      15.287         9.600     -84.00   182000;
 15     4      322.74        322.74         0     0      15.287        32.274     -299.14  563362;
 15     4       53.26         53.26         0     0      15.287         5.326     -49.86   74638;
];

%% Extra operational data for nuclear generators
% DT[s] IC[s] upramp_MWph downramp_MWph MUT[h] MDT[h] reservecost_g MaxFRdeliverable[MW]
mpc.gen_extra_nuclear = [
 15     5       501           501           24     0      15.287        50.1;
 15     5       501           501           24     0      15.287        50.1;
 15     5       888           888           24     0      15.287        88.8;
 15     5       888           888           24     0      15.287        88.8;
 15     5      1615          1615           24     0      15.287       161.5;
 15     5      1119          1119           24     0      15.287       111.9;
 15     5      1166          1166           24     0      15.287       116.6;
 15     5      1064          1064           24     0      15.287       106.4;
 15     5      1105          1105           24     0      15.287       110.5;
 15     5      1398          1398           24     0      15.287       139.8;

% --- 11 new nuclear units (1127 MW each) ---
 15     5      1127          1127           24     0      15.287       112.7;
 15     5      1127          1127           24     0      15.287       112.7;
 15     5      1127          1127           24     0      15.287       112.7;
 15     5      1127          1127           24     0      15.287       112.7;
 15     5      1127          1127           24     0      15.287       112.7;
 15     5      1127          1127           24     0      15.287       112.7;
 15     5      1127          1127           24     0      15.287       112.7;
 15     5      1127          1127           24     0      15.287       112.7;
 15     5      1127          1127           24     0      15.287       112.7;
 15     5      1127          1127           24     0      15.287       112.7;
 15     5      1127          1127           24     0      15.287       112.7;
];

%% Extra operational data for gas generators
% DT[s] IC[s] upramp_MWph downramp_MWph MUT[h] MDT[h] reservecost_g MaxFRdeliverable[MW]
mpc.gen_extra_gas = [
 15     4      583.2         583.2         0     0      15.287        16.2;
 15     4      388.8         388.8         0     0      15.287        10.8;
 15     4      763.2         763.2         0     0      15.287        21.2;
 15     4      475.2         475.2         0     0      15.287        13.2;
 15     4      381.6         381.6         0     0      15.287        10.6;
 15     4     3038.4        3038.4         0     0      15.287        84.4;
 15     4     3340.8        3340.8         0     0      15.287        92.8;
 15     4     8330.4        8330.4         0     0      15.287       231.4;
 15     4    11296.8       11296.8         0     0      15.287       313.8;
 15     4       64.8          64.8         0     0      15.287         1.8;
 15     4       79.2          79.2         0     0      15.287         2.2;
 15     4     1404.0        1404.0         0     0      15.287        39.0;
 15     4      388.8         388.8         0     0      15.287        10.8;
 15     4      410.4         410.4         0     0      15.287        11.4;
];

%% Extra operational data for biomass generators
% DT[s] IC[s] upramp_MWph downramp_MWph MUT[h] MDT[h] reservecost_g MaxFRdeliverable[MW]
mpc.gen_extra_biomass = [
 15     4       18.6          18.6          1      1      15.287         3.1;
 15     4       85.8          85.8          1      1      15.287        14.3;
 15     4       40.8          40.8          1      1      15.287         6.8;
 15     4       79.8          79.8          1      1      15.287        13.3;
 15     4      142.8         142.8          1      1      15.287        23.8;
 15     4      313.8         313.8          1      1      15.287        52.3;
 15     4       33.0          33.0          1      1      15.287         5.5;
 15     4       33.0          33.0          1      1      15.287         5.5;
 15     4      210.6         210.6          1      1      15.287        35.1;
 15     4      132.0         132.0          1      1      15.287        22.0;
 15     4       82.8          82.8          1      1      15.287        13.8;
 15     4       79.8          79.8          1      1      15.287        13.3;
 15     4       78.6          78.6          1      1      15.287        13.1;
 15     4       69.0          69.0          1      1      15.287        11.5;
 15     4       66.0          66.0          1      1      15.287        11.0;
 15     4       66.0          66.0          1      1      15.287        11.0;
 15     4       58.8          58.8          1      1      15.287         9.8;
 15     4      310.8         310.8          1      1      15.287        51.8;
 15     4      179.4         179.4          1      1      15.287        29.9;
 15     4      178.8         178.8          1      1      15.287        29.8;
 15     4      104.4         104.4          1      1      15.287        17.4;
 15     4      102.0         102.0          1      1      15.287        17.0;
 15     4       99.0          99.0          1      1      15.287        16.5;
 15     4       91.8          91.8          1      1      15.287        15.3;
 15     4       88.2          88.2          1      1      15.287        14.7;
 15     4       85.2          85.2          1      1      15.287        14.2;
 15     4       70.2          70.2          1      1      15.287        11.7;
 15     4       69.0          69.0          1      1      15.287        11.5;
 15     4       69.0          69.0          1      1      15.287        11.5;
 15     4       55.2          55.2          1      1      15.287         9.2;
 15     4       30.0          30.0          1      1      15.287         5.0;
 15     4      180.0         180.0          1      1      15.287        30.0;
 15     4      260.4         260.4          1      1      15.287        43.4;
 15     4      200.4         200.4          1      1      15.287        33.4;
 15     4      299.4         299.4          1      1      15.287        49.9;
 15     4      299.4         299.4          1      1      15.287        49.9;
 15     4      507.0         507.0          1      1      15.287        84.5;
 15     4      282.0         282.0          1      1      15.287        47.0;
 15     4      138.0         138.0          1      1      15.287        23.0;
 15     4      115.2         115.2          1      1      15.287        19.2;
 15     4      220.8         220.8          1      1      15.287        36.8;
 15     4      147.6         147.6          1      1      15.287        24.6;
 15     4       82.2          82.2          1      1      15.287        13.7;
 15     4       42.6          42.6          1      1      15.287         7.1;
];

%% Extra operational data for oil generators
% DT[s] IC[s] upramp_MWph downramp_MWph MUT[h] MDT[h] reservecost_g MaxFRdeliverable[MW]
mpc.gen_extra_oil = [
 15     4      120           120            8      8      15.287        59.3;
];

%% Electrolyzer data
%  1-AC_bus   2-area   3-Pmax_MW   4-Pmin_MW   5-eta_ely_MWh_per_kg   6-LoadFactor   7-max_hydrog_flow_kg   8-Smax_kg    9-Smin_kg   10-S0_kg   11-ST_kg   12-DeployTime_s   13-ReserveCost_£_per_MW_h   14-eta_c   15-eta_d   16-StartupCost_£   17-CompressEnergy_MWh_per_kg   18-Hydrogen_market_price_Eur_per_kg
mpc.elec = [
    0   0   1000   100   0.058   0.8   17286   0   0   0   0   0.2   15.3   0   0   855.5   0.00167   4;
];

%% BESS data (custom)
%  1-AC_bus   2-area   3-Pmax_MW   4-Emax_MWh   5-DODmax   6-eta_c   7-eta_d   8-E_init_MWh   9-E_final_MWh   10-DeployTime_s   11-ReserveCost_$_per_MW_h
mpc.bess = [
    0           0        650         1311        0.8      0.9       0.9        65              65               0.2                15.3;
];

%mpc.total_installed_capacity=sum(mpc.reservoir(:,9))+sum(mpc.pump(:,9))+sum(mpc.nuclear(:,9))+sum(mpc.gas(:,9))+sum(mpc.biomass(:,9))+sum(mpc.oil(:,9))+mpc.wind+mpc.solar;

mpc.gen_all = [
% bus   Pg Qg Qmax Qmin Vg mBase status Pmax     Pmin    Pc1 Pc2 Qc1min Qc1max Qc2min Qc2max ramp_agc ramp_10 ramp_30 ramp_q apf alpha type
    mpc.gen      1 * ones(size(mpc.gen,1),1);
    mpc.pump     2 * ones(size(mpc.pump,1),1);
    mpc.nuclear  3 * ones(size(mpc.nuclear,1),1);
    mpc.gas      4 * ones(size(mpc.gas,1),1);
    mpc.biomass  5 * ones(size(mpc.biomass,1),1);
    mpc.oil      6 * ones(size(mpc.oil,1),1);
];
